Version 4
SHEET 1 1956 880
WIRE 128 -144 -288 -144
WIRE 832 -144 128 -144
WIRE -288 -96 -288 -144
WIRE 832 -48 832 -144
WIRE -288 48 -288 -16
WIRE 32 48 -16 48
WIRE 128 48 128 -144
WIRE 128 48 32 48
WIRE 240 48 128 48
WIRE 384 48 240 48
WIRE 832 96 832 32
WIRE 1040 96 832 96
WIRE 1104 96 1040 96
WIRE 1200 96 1168 96
WIRE 1264 96 1200 96
WIRE 1280 96 1264 96
WIRE 1328 96 1312 96
WIRE 1424 96 1328 96
WIRE 1584 96 1424 96
WIRE 1632 96 1584 96
WIRE 1680 96 1632 96
WIRE 1728 96 1680 96
WIRE 1776 96 1728 96
WIRE 1872 96 1776 96
WIRE 32 112 -16 112
WIRE -16 144 -16 112
WIRE 832 144 832 96
WIRE 240 160 240 48
WIRE 384 160 384 48
WIRE 1632 160 1584 160
WIRE 1680 160 1632 160
WIRE 1728 160 1680 160
WIRE 1040 176 1040 96
WIRE 1200 208 1200 96
WIRE 1872 208 1872 176
WIRE 128 224 128 48
WIRE 160 224 128 224
WIRE 784 224 448 224
WIRE 640 304 448 304
WIRE 832 304 832 240
WIRE 832 304 720 304
WIRE 1424 368 1424 96
WIRE 0 384 -96 384
WIRE 160 384 0 384
WIRE 832 384 448 384
WIRE 0 432 0 384
WIRE 160 464 112 464
WIRE 1424 464 1424 448
WIRE 1424 464 448 464
WIRE 1424 480 1424 464
WIRE -96 512 -96 384
WIRE 112 544 112 464
WIRE 1200 544 1200 272
WIRE 1200 544 1136 544
WIRE 0 560 0 512
WIRE 832 576 832 384
WIRE 1136 576 1136 544
WIRE 1424 576 1424 560
WIRE 1632 576 1632 160
WIRE -96 656 -96 576
WIRE 0 656 0 624
WIRE 112 656 112 624
WIRE 1200 672 1200 544
WIRE 1040 832 1040 240
WIRE 1200 832 1200 736
WIRE 1200 832 1040 832
WIRE 1312 832 1200 832
WIRE 1568 832 1376 832
WIRE 1632 832 1568 832
WIRE 1696 832 1632 832
WIRE 1760 832 1696 832
WIRE 1872 832 1760 832
FLAG 832 576 0
FLAG 1424 576 0
FLAG 1632 576 0
FLAG 112 656 0
FLAG 0 656 0
FLAG -96 656 0
FLAG -16 144 0
FLAG -288 48 0
FLAG 1776 96 Out
FLAG 1872 208 0
FLAG 1136 576 0
FLAG 1872 752 0
FLAG 1568 768 0
FLAG 1632 768 0
FLAG 1696 768 0
FLAG 1760 768 0
SYMBOL PowerProducts\\ADP1621 304 336 R0
SYMATTR InstName U1
SYMBOL nmos 784 144 R0
SYMATTR InstName M1
SYMATTR Value BSC0902NSI
SYMBOL ind 816 -64 R0
SYMATTR InstName L1
SYMATTR Value 2.2µ
SYMBOL diode 1264 112 R270
WINDOW 0 32 32 VTop 2
WINDOW 3 0 32 VBottom 2
SYMATTR InstName D1
SYMATTR Value MURS320
SYMBOL res 1408 352 R0
SYMATTR InstName R1
SYMATTR Value 91k
SYMBOL res 1408 464 R0
SYMATTR InstName R2
SYMATTR Value 7.5k
SYMBOL cap 1568 96 R0
SYMATTR InstName C1
SYMATTR Value 1µ
SYMBOL cap 1616 96 R0
SYMATTR InstName C2
SYMATTR Value 10µ
SYMBOL cap 1664 96 R0
SYMATTR InstName C3
SYMATTR Value 220µ
SYMBOL res 96 528 R0
SYMATTR InstName R4
SYMATTR Value 30k
SYMBOL cap -16 560 R0
SYMATTR InstName C4
SYMATTR Value 6.8n
SYMBOL res -16 416 R0
SYMATTR InstName R5
SYMATTR Value 3.6k
SYMBOL cap -112 512 R0
SYMATTR InstName C5
SYMATTR Value 330p
SYMBOL cap 16 48 R0
SYMATTR InstName C6
SYMATTR Value 0.1µ
SYMBOL cap -32 48 R0
SYMATTR InstName C7
SYMATTR Value 1µ
SYMBOL voltage -288 -112 R0
WINDOW 123 0 0 Left 0
WINDOW 39 0 0 Left 0
SYMATTR InstName V1
SYMATTR Value 3.3
SYMBOL res 1856 80 R0
SYMATTR InstName R6
SYMATTR Value 300
SYMBOL res 736 288 R90
WINDOW 0 0 56 VBottom 2
WINDOW 3 32 56 VTop 2
SYMATTR InstName R3
SYMATTR Value 1k
SYMBOL res 816 288 R0
SYMATTR InstName R7
SYMATTR Value 10m
SYMBOL cap 1168 80 R90
WINDOW 0 0 32 VBottom 2
WINDOW 3 32 32 VTop 2
SYMATTR InstName C8
SYMATTR Value 1µ
SYMBOL cap 1024 176 R0
SYMATTR InstName C9
SYMATTR Value 1µ
SYMBOL diode 1216 272 R180
WINDOW 0 24 64 Left 2
WINDOW 3 24 0 Left 2
SYMATTR InstName D2
SYMATTR Value MURS320
SYMBOL diode 1216 736 R180
WINDOW 0 24 64 Left 2
WINDOW 3 24 0 Left 2
SYMATTR InstName D3
SYMATTR Value MURS320
SYMBOL diode 1376 816 R90
WINDOW 0 0 32 VBottom 2
WINDOW 3 32 32 VTop 2
SYMATTR InstName D4
SYMATTR Value MURS320
SYMBOL res 1856 736 R0
SYMATTR InstName R8
SYMATTR Value 300
SYMBOL cap 1552 768 R0
SYMATTR InstName C10
SYMATTR Value 1µ
SYMBOL cap 1616 768 R0
SYMATTR InstName C11
SYMATTR Value 10µ
SYMBOL cap 1680 768 R0
SYMATTR InstName C12
SYMATTR Value 220µ
SYMBOL cap 1712 96 R0
SYMATTR InstName C13
SYMATTR Value 44µ
SYMBOL cap 1744 768 R0
SYMATTR InstName C14
SYMATTR Value 44µ
TEXT -322 680 Left 2 !.tran 50m startup
